LTspice 24.1.9 for Windows
Circuit: C:\Users\Dell\Documents\GitHub\audion-receiver-4\audion-receiver-4.net
Start Time: Sun Jan  4 00:52:45 2026
solver = Normal
Maximum thread count: 8
tnom = 27
temp = 27
method = trap
WARNING: Node n006 is floating.

Direct Newton iteration for .op point succeeded.
.step cvar=1e-10
.step cvar=2e-10
.step cvar=3e-10
Total elapsed time: 1.997 seconds.

Files loaded:
C:\Users\Dell\Documents\GitHub\audion-receiver-4\audion-receiver-4.net
C:\Users\Dell\AppData\Local\LTspice\lib\cmp\standard.dio
C:\Users\Dell\AppData\Local\LTspice\lib\cmp\standard.bjt
C:\Users\Dell\AppData\Local\LTspice\lib\cmp\standard.jft

