LTspice 24.1.10 for Windows
Circuit: C:\Users\Daemon\Documents\GitHub\audion-receiver-4\audion-receiver-4.net
Start Time: Sat Dec 27 23:21:43 2025
solver = Normal
Maximum thread count: 4
tnom = 27
temp = 27
method = modified trap
Direct Newton iteration for .op point succeeded.
.step cvar=1e-11
.step cvar=1e-10
.step cvar=2e-10
.step cvar=3e-10
Total elapsed time: 0.551 seconds.

Files loaded:
C:\Users\Daemon\Documents\GitHub\audion-receiver-4\audion-receiver-4.net
C:\Users\Daemon\AppData\Local\LTspice\lib\cmp\standard.dio
C:\Users\Daemon\AppData\Local\LTspice\lib\cmp\standard.bjt
C:\Users\Daemon\AppData\Local\LTspice\lib\cmp\standard.jft

